/*--------------------------------*- C++ -*----------------------------------*\
| =========                 |                                                 |
| \\      /  F ield         | OpenFOAM: The Open Source CFD Toolbox           |
|  \\    /   O peration     | Version:  5                                     |
|   \\  /    A nd           | Web:      www.OpenFOAM.org                      |
|    \\/     M anipulation  |                                                 |
\*---------------------------------------------------------------------------*/
FoamFile
{
    version     2.0;
    format      ascii;
    class       dictionary;
    location    "system";
    object      fvSchemes;
}
// * * * * * * * * * * * * * * * * * * * * * * * * * * * * * * * * * * * * * //

ddtSchemes
{
	default			CrankNicolson 0.9;
}

gradSchemes
{
    default         Gauss linear;
}

divSchemes
{
    div(phi,U)      Gauss linearUpwind grad(U);
    div(phid,p)     Gauss linearUpwind default;
    div(phi,e)      Gauss linearUpwind default;
    div(phi,K)      Gauss linearUpwind default;
    div(phiv,p)     Gauss linearUpwind default;
    div(((rho*nuEff)*dev2(T(grad(U))))) Gauss linear;
}

laplacianSchemes
{
	default 		Gauss linear orthogonal
}

interpolationSchemes
{
    default         linear;
}

snGradSchemes
{	
    default         orthogonal;
}


// ************************************************************************* //
