/*--------------------------------*- C++ -*----------------------------------*\
| =========                 |                                                 |
| \\      /  F ield         | OpenFOAM: The Open Source CFD Toolbox           |
|  \\    /   O peration     | Version:  5                                     |
|   \\  /    A nd           | Web:      www.OpenFOAM.org                      |
|    \\/     M anipulation  |                                                 |
\*---------------------------------------------------------------------------*/
FoamFile
{
    version     2.0;
    format      ascii;
    class       volVectorField;
    object      U;
}
// * * * * * * * * * * * * * * * * * * * * * * * * * * * * * * * * * * * * * //

dimensions      [0 1 -1 0 0 0 0];

internalField   uniform (0 0 0);

boundaryField
{
    left
	{
		//a sin(2 \pi f (t - t_0)) s + l
		type uniformFixedValue;
		uniformValue sine;
	    uniformValueCoeffs
        {
            frequency 163.711187;
            amplitude 0.154294;// U0            
	    scale     (1 0 0); 
            level     (0 0 0); // offset
            t0  0;
        }
	}

    right
    {
        type            noSlip;
    }

    top
    {
        type            noSlip;
    }

    bottom_axis
    {
        type            symmetryPlane;
    }

    frontAndBack
    {
        type            empty;
    }
}

// ************************************************************************* //
